FoamFile
{
    version     2.0;
    format      ascii;
    class       dictionary;
    object      controlDict;
}

application     pimpleFoam;

startFrom       startTime;

startTime       0;

stopAt          endTime;

endTime         0.4;

deltaT          1e-3;

writeControl    adjustableRunTime;

writeInterval   1e-3;

purgeWrite      0;

writeFormat     ascii;

writePrecision  6;

writeCompression off;

timeFormat      general;

timePrecision   6;

libs ("libpreciceAdapterFunctionObject.so");
functions
{
    preCICE_Adapter
    {
        type preciceAdapterFunctionObject;
        errors strict; // Available since OpenFOAM v2012
    }
}
