/*--------------------------------*- C++ -*----------------------------------*\
| =========                 |                                                 |
| \\      /  F ield         | OpenFOAM: The Open Source CFD Toolbox           |
|  \\    /   O peration     | Version:  v2412                                 |
|   \\  /    A nd           | Website:  www.openfoam.com                      |
|    \\/     M anipulation  |                                                 |
\*---------------------------------------------------------------------------*/
FoamFile
{
    version     2.0;
    format      ascii;
    class       dictionary;
    object      controlDict;
}
// * * * * * * * * * * * * * * * * * * * * * * * * * * * * * * * * * * * * * //

application     AndersonJacksonFoam;
// application     pimpleFoam;

startFrom       startTime;

startTime       0;

stopAt          endTime;

endTime         0.25;

deltaT          1e-3;

writeControl    adjustableRunTime;

writeInterval   1e-3;

purgeWrite      0;

writePrecision  3;

writeCompression on;

timeFormat      general;

timePrecision   6;

libs ("libpreciceAdapterFunctionObject.so");
functions
{
    preCICE_Adapter
    {
        type preciceAdapterFunctionObject;
        errors strict;
    }
}

// ************************************************************************* //
