FoamFile
{
    version     2.0;
    format      ascii;
    class       volVectorField;
    object      particleForce;
}

dimensions      [1 -2 -2 0 0 0 0];

internalField   uniform (0 0 0);

boundaryField
{
    "bottom|spout|top|sides|front|back"
    {
        type            calculated;
        value           uniform (0 0 0);
    }
}
