FoamFile
{
    version     2.0;
    format      ascii;
    class       volScalarField;
    object      alphaSolid;
}

dimensions      [0 0 0 0 0 0 0];

internalField   uniform 0;

boundaryField
{
    ".*"
    {
        type            calculated;
        value           uniform 0;
    }
}
