FoamFile
{
    version     2.0;
    format      ascii;
    class       volScalarField;
    location    "0";
    object      ImplicitMomentum;
}

dimensions      [0 0 -1 0 0 0 0];
internalField   uniform 0;
boundaryField
{
    "bottom|spout|top|sides"
    {
        type            calculated;
        value           uniform 0;
    }
    "front|back"
    {
        type            cyclic;
    }
}
